
@<TRIPOS>MOLECULE                                                                                        
surf.pdb
11 10 0 0 0
SMALL                                                                                                    
GASTEIGER                                                                                                
                                                                                                          
@<TRIPOS>ATOM
    1 CM        0.0000    0.0000    0.0000
    2 CM        0.0000    0.0000    4.5000
    3 CM        0.0000    0.0000    9.0000
    4 CM        0.0000    0.0000   13.5000
    5 CM        0.0000    0.0000   18.0000
    6 OA        0.0000    0.0000   22.5000
    7 OA        0.0000    0.0000   27.0000
    8 CM        0.0000   -9.0000   18.0000
    9 CM        0.0000   -4.5000   18.0000
    10 CM        0.0000    4.5000   18.0000
    11 CM        0.0000    9.0000   18.0000
@<TRIPOS>BOND
     1     1      2     un
     2     2      3     un
     3     3      4     un
     4     4      5     un
     5     5      6     un
     6     6      7     un
     7     8      9     un
     8     9      5     un
     9     5      10     un
     10     10      11     un
